input_files/RTS96DYN/area1.RAW
0, 100, 33, 0, 0, 60  / 30-Jan-2023 14:59:00 - MATPOWER 7.1


     1, 'BUS 1       ',       138, 2,    1,    1, 1,           1,           0, 1.05, 0.95, 1.05, 0.95
     2, 'BUS 2       ',       138, 2,    1,    1, 1,           1,           0, 1.05, 0.95, 1.05, 0.95
     3, 'BUS 3       ',       138, 1,    1,    1, 1,           1,           0, 1.05, 0.95, 1.05, 0.95
     4, 'BUS 4       ',       138, 1,    1,    1, 1,           1,           0, 1.05, 0.95, 1.05, 0.95
     5, 'BUS 5       ',       138, 1,    1,    1, 1,           1,           0, 1.05, 0.95, 1.05, 0.95
     6, 'BUS 6       ',       138, 1,    2,    1, 1,           1,           0, 1.05, 0.95, 1.05, 0.95
     7, 'BUS 7       ',       138, 2,    2,    1, 1,           1,           0, 1.05, 0.95, 1.05, 0.95
     8, 'BUS 8       ',       138, 1,    2,    1, 1,           1,           0, 1.05, 0.95, 1.05, 0.95
     9, 'BUS 9       ',       138, 1,    1,    1, 1,           1,           0, 1.05, 0.95, 1.05, 0.95
    10, 'BUS 10      ',       138, 1,    2,    1, 1,           1,           0, 1.05, 0.95, 1.05, 0.95
    11, 'BUS 11      ',       230, 1,    3,    1, 1,           1,           0, 1.05, 0.95, 1.05, 0.95
    12, 'BUS 12      ',       230, 1,    3,    1, 1,           1,           0, 1.05, 0.95, 1.05, 0.95
    13, 'BUS 13      ',       230, 3,    3,    1, 1,           1,           0, 1.05, 0.95, 1.05, 0.95
    14, 'BUS 14      ',       230, 2,    3,    1, 1,           1,           0, 1.05, 0.95, 1.05, 0.95
    15, 'BUS 15      ',       230, 2,    4,    1, 1,           1,           0, 1.05, 0.95, 1.05, 0.95
    16, 'BUS 16      ',       230, 2,    4,    1, 1,           1,           0, 1.05, 0.95, 1.05, 0.95
    17, 'BUS 17      ',       230, 1,    4,    1, 1,           1,           0, 1.05, 0.95, 1.05, 0.95
    18, 'BUS 18      ',       230, 2,    4,    1, 1,           1,           0, 1.05, 0.95, 1.05, 0.95
    19, 'BUS 19      ',       230, 1,    3,    1, 1,           1,           0, 1.05, 0.95, 1.05, 0.95
    20, 'BUS 20      ',       230, 1,    3,    1, 1,           1,           0, 1.05, 0.95, 1.05, 0.95
    21, 'BUS 21      ',       230, 2,    4,    1, 1,           1,           0, 1.05, 0.95, 1.05, 0.95
    22, 'BUS 22      ',       230, 2,    4,    1, 1,           1,           0, 1.05, 0.95, 1.05, 0.95
    23, 'BUS 23      ',       230, 2,    3,    1, 1,           1,           0, 1.05, 0.95, 1.05, 0.95
    24, 'BUS 24      ',       230, 1,    4,    1, 1,           1,           0, 1.05, 0.95, 1.05, 0.95
0 / END OF BUS DATA, BEGIN LOAD DATA
     1,  1, 1,    1,    1,       108,        22, 0, 0, 0, 0, 1, 1, 0
     2,  1, 1,    1,    1,        97,        20, 0, 0, 0, 0, 1, 1, 0
     3,  1, 1,    1,    1,       180,        37, 0, 0, 0, 0, 1, 1, 0
     4,  1, 1,    1,    1,        74,        15, 0, 0, 0, 0, 1, 1, 0
     5,  1, 1,    1,    1,        71,        14, 0, 0, 0, 0, 1, 1, 0
     6,  1, 1,    2,    1,       136,        28, 0, 0, 0, 0, 1, 1, 0
     7,  1, 1,    2,    1,       125,        25, 0, 0, 0, 0, 1, 1, 0
     8,  1, 1,    2,    1,       171,        35, 0, 0, 0, 0, 1, 1, 0
     9,  1, 1,    1,    1,       175,        36, 0, 0, 0, 0, 1, 1, 0
    10,  1, 1,    2,    1,       195,        40, 0, 0, 0, 0, 1, 1, 0
    13,  1, 1,    3,    1,       265,        54, 0, 0, 0, 0, 1, 1, 0
    14,  1, 1,    3,    1,       194,        39, 0, 0, 0, 0, 1, 1, 0
    15,  1, 1,    4,    1,       317,        64, 0, 0, 0, 0, 1, 1, 0
    16,  1, 1,    4,    1,       100,        20, 0, 0, 0, 0, 1, 1, 0
    18,  1, 1,    4,    1,       333,        68, 0, 0, 0, 0, 1, 1, 0
    19,  1, 1,    3,    1,       181,        37, 0, 0, 0, 0, 1, 1, 0
    20,  1, 1,    3,    1,       128,        26, 0, 0, 0, 0, 1, 1, 0
0 / END OF LOAD DATA, BEGIN FIXED SHUNT DATA
     6, 1, 1,       0,    -100
0 / END OF FIXED SHUNT DATA, BEGIN GENERATOR DATA
     1,  1,        10,         0,        10,         0,    1.035, 0,     100, 0, 1, 0, 0, 1, 1, 100,        20,        16, 1, 1, 0, 1, 0, 1, 0, 1, 0, 1
     1,  1,        10,         0,        10,         0,    1.035, 0,     100, 0, 1, 0, 0, 1, 1, 100,        20,        16, 1, 1, 0, 1, 0, 1, 0, 1, 0, 1
     1,  1,        76,         0,        30,       -25,    1.035, 0,     100, 0, 1, 0, 0, 1, 1, 100,        76,      15.2, 1, 1, 0, 1, 0, 1, 0, 1, 0, 1
     1,  1,        76,         0,        30,       -25,    1.035, 0,     100, 0, 1, 0, 0, 1, 1, 100,        76,      15.2, 1, 1, 0, 1, 0, 1, 0, 1, 0, 1
     2,  1,        10,         0,        10,         0,    1.035, 0,     100, 0, 1, 0, 0, 1, 1, 100,        20,        16, 1, 1, 0, 1, 0, 1, 0, 1, 0, 1
     2,  1,        10,         0,        10,         0,    1.035, 0,     100, 0, 1, 0, 0, 1, 1, 100,        20,        16, 1, 1, 0, 1, 0, 1, 0, 1, 0, 1
     2,  1,        76,         0,        30,       -25,    1.035, 0,     100, 0, 1, 0, 0, 1, 1, 100,        76,      15.2, 1, 1, 0, 1, 0, 1, 0, 1, 0, 1
     2,  1,        76,         0,        30,       -25,    1.035, 0,     100, 0, 1, 0, 0, 1, 1, 100,        76,      15.2, 1, 1, 0, 1, 0, 1, 0, 1, 0, 1
     7,  1,        80,         0,        60,         0,    1.025, 0,     100, 0, 1, 0, 0, 1, 1, 100,       100,        25, 1, 1, 0, 1, 0, 1, 0, 1, 0, 1
     7,  1,        80,         0,        60,         0,    1.025, 0,     100, 0, 1, 0, 0, 1, 1, 100,       100,        25, 1, 1, 0, 1, 0, 1, 0, 1, 0, 1
     7,  1,        80,         0,        60,         0,    1.025, 0,     100, 0, 1, 0, 0, 1, 1, 100,       100,        25, 1, 1, 0, 1, 0, 1, 0, 1, 0, 1
    13,  1,      95.1,         0,        80,         0,     1.02, 0,     100, 0, 1, 0, 0, 1, 1, 100,       197,        69, 1, 1, 0, 1, 0, 1, 0, 1, 0, 1
    13,  1,      95.1,         0,        80,         0,     1.02, 0,     100, 0, 1, 0, 0, 1, 1, 100,       197,        69, 1, 1, 0, 1, 0, 1, 0, 1, 0, 1
    13,  1,      95.1,         0,        80,         0,     1.02, 0,     100, 0, 1, 0, 0, 1, 1, 100,       197,        69, 1, 1, 0, 1, 0, 1, 0, 1, 0, 1
    14,  1,         0,      35.3,       200,       -50,     0.98, 0,     100, 0, 1, 0, 0, 1, 1, 100,         0,         0, 1, 1, 0, 1, 0, 1, 0, 1, 0, 1
    15,  1,        12,         0,         6,         0,    1.014, 0,     100, 0, 1, 0, 0, 1, 1, 100,        12,       2.4, 1, 1, 0, 1, 0, 1, 0, 1, 0, 1
    15,  1,        12,         0,         6,         0,    1.014, 0,     100, 0, 1, 0, 0, 1, 1, 100,        12,       2.4, 1, 1, 0, 1, 0, 1, 0, 1, 0, 1
    15,  1,        12,         0,         6,         0,    1.014, 0,     100, 0, 1, 0, 0, 1, 1, 100,        12,       2.4, 1, 1, 0, 1, 0, 1, 0, 1, 0, 1
    15,  1,        12,         0,         6,         0,    1.014, 0,     100, 0, 1, 0, 0, 1, 1, 100,        12,       2.4, 1, 1, 0, 1, 0, 1, 0, 1, 0, 1
    15,  1,        12,         0,         6,         0,    1.014, 0,     100, 0, 1, 0, 0, 1, 1, 100,        12,       2.4, 1, 1, 0, 1, 0, 1, 0, 1, 0, 1
    15,  1,       155,         0,        80,       -50,    1.014, 0,     100, 0, 1, 0, 0, 1, 1, 100,       155,      54.3, 1, 1, 0, 1, 0, 1, 0, 1, 0, 1
    16,  1,       155,         0,        80,       -50,    1.017, 0,     100, 0, 1, 0, 0, 1, 1, 100,       155,      54.3, 1, 1, 0, 1, 0, 1, 0, 1, 0, 1
    18,  1,       400,         0,       200,       -50,     1.05, 0,     100, 0, 1, 0, 0, 1, 1, 100,       400,       100, 1, 1, 0, 1, 0, 1, 0, 1, 0, 1
    21,  1,       400,         0,       200,       -50,     1.05, 0,     100, 0, 1, 0, 0, 1, 1, 100,       400,       100, 1, 1, 0, 1, 0, 1, 0, 1, 0, 1
    22,  1,        50,         0,        16,       -10,     1.05, 0,     100, 0, 1, 0, 0, 1, 1, 100,        50,        10, 1, 1, 0, 1, 0, 1, 0, 1, 0, 1
    22,  1,        50,         0,        16,       -10,     1.05, 0,     100, 0, 1, 0, 0, 1, 1, 100,        50,        10, 1, 1, 0, 1, 0, 1, 0, 1, 0, 1
    22,  1,        50,         0,        16,       -10,     1.05, 0,     100, 0, 1, 0, 0, 1, 1, 100,        50,        10, 1, 1, 0, 1, 0, 1, 0, 1, 0, 1
    22,  1,        50,         0,        16,       -10,     1.05, 0,     100, 0, 1, 0, 0, 1, 1, 100,        50,        10, 1, 1, 0, 1, 0, 1, 0, 1, 0, 1
    22,  1,        50,         0,        16,       -10,     1.05, 0,     100, 0, 1, 0, 0, 1, 1, 100,        50,        10, 1, 1, 0, 1, 0, 1, 0, 1, 0, 1
    22,  1,        50,         0,        16,       -10,     1.05, 0,     100, 0, 1, 0, 0, 1, 1, 100,        50,        10, 1, 1, 0, 1, 0, 1, 0, 1, 0, 1
    23,  1,       155,         0,        80,       -50,     1.05, 0,     100, 0, 1, 0, 0, 1, 1, 100,       155,      54.3, 1, 1, 0, 1, 0, 1, 0, 1, 0, 1
    23,  1,       155,         0,        80,       -50,     1.05, 0,     100, 0, 1, 0, 0, 1, 1, 100,       155,      54.3, 1, 1, 0, 1, 0, 1, 0, 1, 0, 1
    23,  1,       350,         0,       150,       -25,     1.05, 0,     100, 0, 1, 0, 0, 1, 1, 100,       350,       140, 1, 1, 0, 1, 0, 1, 0, 1, 0, 1
0 / END OF GENERATOR DATA, BEGIN BRANCH DATA
     1,      2, 1,   0.0026,   0.0139,   0.4611,     175,     250,     200, 0, 0, 0, 0, 1, 1, 0, 1, 1, 0, 1, 0, 1, 0, 1
     1,      3, 1,   0.0546,   0.2112,   0.0572,     175,     208,     220, 0, 0, 0, 0, 1, 1, 0, 1, 1, 0, 1, 0, 1, 0, 1
     1,      5, 1,   0.0218,   0.0845,   0.0229,     175,     208,     220, 0, 0, 0, 0, 1, 1, 0, 1, 1, 0, 1, 0, 1, 0, 1
     2,      4, 1,   0.0328,   0.1267,   0.0343,     175,     208,     220, 0, 0, 0, 0, 1, 1, 0, 1, 1, 0, 1, 0, 1, 0, 1
     2,      6, 1,   0.0497,    0.192,    0.052,     175,     208,     220, 0, 0, 0, 0, 1, 1, 0, 1, 1, 0, 1, 0, 1, 0, 1
     3,      9, 1,   0.0308,    0.119,   0.0322,     175,     208,     220, 0, 0, 0, 0, 1, 1, 0, 1, 1, 0, 1, 0, 1, 0, 1
     4,      9, 1,   0.0268,   0.1037,   0.0281,     175,     208,     220, 0, 0, 0, 0, 1, 1, 0, 1, 1, 0, 1, 0, 1, 0, 1
     5,     10, 1,   0.0228,   0.0883,   0.0239,     175,     208,     220, 0, 0, 0, 0, 1, 1, 0, 1, 1, 0, 1, 0, 1, 0, 1
     6,     10, 1,   0.0139,   0.0605,    2.459,     175,     193,     200, 0, 0, 0, 0, 1, 1, 0, 1, 1, 0, 1, 0, 1, 0, 1
     7,      8, 1,   0.0159,   0.0614,   0.0166,     175,     208,     220, 0, 0, 0, 0, 1, 1, 0, 1, 1, 0, 1, 0, 1, 0, 1
     8,      9, 1,   0.0427,   0.1651,   0.0447,     175,     208,     220, 0, 0, 0, 0, 1, 1, 0, 1, 1, 0, 1, 0, 1, 0, 1
     8,     10, 1,   0.0427,   0.1651,   0.0447,     175,     208,     220, 0, 0, 0, 0, 1, 1, 0, 1, 1, 0, 1, 0, 1, 0, 1
    11,     13, 1,   0.0061,   0.0476,   0.0999,     500,     600,     625, 0, 0, 0, 0, 1, 1, 0, 1, 1, 0, 1, 0, 1, 0, 1
    11,     14, 1,   0.0054,   0.0418,   0.0879,     500,     625,     625, 0, 0, 0, 0, 1, 1, 0, 1, 1, 0, 1, 0, 1, 0, 1
    12,     13, 1,   0.0061,   0.0476,   0.0999,     500,     625,     625, 0, 0, 0, 0, 1, 1, 0, 1, 1, 0, 1, 0, 1, 0, 1
    12,     23, 1,   0.0124,   0.0966,    0.203,     500,     625,     625, 0, 0, 0, 0, 1, 1, 0, 1, 1, 0, 1, 0, 1, 0, 1
    13,     23, 1,   0.0111,   0.0865,   0.1818,     500,     625,     625, 0, 0, 0, 0, 1, 1, 0, 1, 1, 0, 1, 0, 1, 0, 1
    14,     16, 1,    0.005,   0.0389,   0.0818,     500,     625,     625, 0, 0, 0, 0, 1, 1, 0, 1, 1, 0, 1, 0, 1, 0, 1
    15,     16, 1,   0.0022,   0.0173,   0.0364,     500,     600,     625, 0, 0, 0, 0, 1, 1, 0, 1, 1, 0, 1, 0, 1, 0, 1
    15,     21, 1,   0.0063,    0.049,    0.103,     500,     600,     625, 0, 0, 0, 0, 1, 1, 0, 1, 1, 0, 1, 0, 1, 0, 1
    15,     21, 2,   0.0063,    0.049,    0.103,     500,     600,     625, 0, 0, 0, 0, 1, 1, 0, 1, 1, 0, 1, 0, 1, 0, 1
    15,     24, 1,   0.0067,   0.0519,   0.1091,     500,     600,     625, 0, 0, 0, 0, 1, 1, 0, 1, 1, 0, 1, 0, 1, 0, 1
    16,     17, 1,   0.0033,   0.0259,   0.0545,     500,     600,     625, 0, 0, 0, 0, 1, 1, 0, 1, 1, 0, 1, 0, 1, 0, 1
    16,     19, 1,    0.003,   0.0231,   0.0485,     500,     600,     625, 0, 0, 0, 0, 1, 1, 0, 1, 1, 0, 1, 0, 1, 0, 1
    17,     18, 1,   0.0018,   0.0144,   0.0303,     500,     600,     625, 0, 0, 0, 0, 1, 1, 0, 1, 1, 0, 1, 0, 1, 0, 1
    17,     22, 1,   0.0135,   0.1053,   0.2212,     500,     600,     625, 0, 0, 0, 0, 1, 1, 0, 1, 1, 0, 1, 0, 1, 0, 1
    18,     21, 1,   0.0033,   0.0259,   0.0545,     500,     600,     625, 0, 0, 0, 0, 1, 1, 0, 1, 1, 0, 1, 0, 1, 0, 1
    18,     21, 2,   0.0033,   0.0259,   0.0545,     500,     600,     625, 0, 0, 0, 0, 1, 1, 0, 1, 1, 0, 1, 0, 1, 0, 1
    19,     20, 1,   0.0051,   0.0396,   0.0833,     500,     600,     625, 0, 0, 0, 0, 1, 1, 0, 1, 1, 0, 1, 0, 1, 0, 1
    19,     20, 2,   0.0051,   0.0396,   0.0833,     500,     600,     625, 0, 0, 0, 0, 1, 1, 0, 1, 1, 0, 1, 0, 1, 0, 1
    20,     23, 1,   0.0028,   0.0216,   0.0455,     500,     600,     625, 0, 0, 0, 0, 1, 1, 0, 1, 1, 0, 1, 0, 1, 0, 1
    20,     23, 2,   0.0028,   0.0216,   0.0455,     500,     600,     625, 0, 0, 0, 0, 1, 1, 0, 1, 1, 0, 1, 0, 1, 0, 1
    21,     22, 1,   0.0087,   0.0678,   0.1424,     500,     600,     625, 0, 0, 0, 0, 1, 1, 0, 1, 1, 0, 1, 0, 1, 0, 1
0 / END OF BRANCH DATA, BEGIN TRANSFORMER DATA
     3,     24, 0, 1, 1, 1, 1, 0, 0, 2, '            ', 1, 1, 1, 0, 1, 0, 1, 0, 1, '            '
0.0023, 0.0839, 100
 1.03, 0,     0,     400,     510,     600, 0, 0, 1.1, 0.9, 1.1, 0.9, 33, 0, 0, 0, 0
    1, 0
     9,     11, 0, 1, 1, 1, 1, 0, 0, 2, '            ', 1, 1, 1, 0, 1, 0, 1, 0, 1, '            '
0.0023, 0.0839, 100
 1.03, 0,     0,     400,     510,     600, 0, 0, 1.1, 0.9, 1.1, 0.9, 33, 0, 0, 0, 0
    1, 0
     9,     12, 0, 1, 1, 1, 1, 0, 0, 2, '            ', 1, 1, 1, 0, 1, 0, 1, 0, 1, '            '
0.0023, 0.0839, 100
 1.03, 0,     0,     400,     510,     600, 0, 0, 1.1, 0.9, 1.1, 0.9, 33, 0, 0, 0, 0
    1, 0
    10,     11, 0, 1, 1, 1, 1, 0, 0, 2, '            ', 1, 1, 1, 0, 1, 0, 1, 0, 1, '            '
0.0023, 0.0839, 100
 1.02, 0,     0,     400,     510,     600, 0, 0, 1.1, 0.9, 1.1, 0.9, 33, 0, 0, 0, 0
    1, 0
    10,     12, 0, 1, 1, 1, 1, 0, 0, 2, '            ', 1, 1, 1, 0, 1, 0, 1, 0, 1, '            '
0.0023, 0.0839, 100
 1.02, 0,     0,     400,     510,     600, 0, 0, 1.1, 0.9, 1.1, 0.9, 33, 0, 0, 0, 0
    1, 0
0 / END OF TRANSFORMER DATA, BEGIN AREA DATA
0 / END OF AREA DATA, BEGIN TWO-TERMINAL DC DATA
0 / END OF TWO-TERMINAL DC DATA, BEGIN VOLTAGE SOURCE CONVERTER DATA
0 / END OF VOLTAGE SOURCE CONVERTER DATA, BEGIN IMPEDANCE CORRECTION DATA
0 / END OF IMPEDANCE CORRECTION DATA, BEGIN MULTI-TERMINAL DC DATA
0 / END OF MULTI-TERMINAL DC DATA, BEGIN MULTI-SECTION LINE DATA
0 / END OF MULTI-SECTION LINE DATA, BEGIN ZONE DATA
0 / END OF ZONE DATA, BEGIN INTER-AREA TRANSFER DATA
0 / END OF INTER-AREA TRANSFER DATA, BEGIN OWNER DATA
0 / END OF OWNER DATA, BEGIN FACTS CONTROL DEVICE DATA
0 / END OF FACTS CONTROL DEVICE DATA, BEGIN SWITCHED SHUNT DATA
0 / END OF SWITCHED SHUNT DATA, BEGIN GNE DEVICE DATA
0 / END OF GNE DEVICE DATA, BEGIN INDUCTION MACHINE DATA
0 / END OF INDUCTION MACHINE DATA
Q
